19
04/14/2016 10:01, XYZ structure generated by mol3D Class, molSimplify
Fe 	0.000000	0.000000	0.000000
N 	-0.000000	2.030000	-0.000000
H 	-0.000590	2.644544	0.844410
H 	0.000590	2.644582	-0.844410
N 	2.030000	0.000000	-0.000000
H 	2.644544	-0.027686	0.843956
H 	2.644582	0.027686	-0.843956
N 	-0.000000	-2.030000	0.000000
H 	-0.061104	-2.644544	0.842197
H 	0.061104	-2.644582	-0.842197
N 	-2.030000	0.000000	0.000000
H 	-2.644544	-0.323265	0.780082
H 	-2.644582	0.323265	-0.780082
N 	-0.000000	0.000000	2.030000
H 	-0.828005	-0.165640	2.644544
H 	0.828005	0.165640	2.644582
N 	0.000000	-0.000000	-2.030000
H 	0.836393	0.116088	-2.644544
H 	-0.836393	-0.116088	-2.644582
